Circuit: * C:\Users\thamilezai\Desktop\Analogue_sem_3\STEM\circuit\complete.asc

WARNING: Node N014 is floating.

Direct Newton iteration for .op point succeeded.

Date: Tue Oct 22 10:08:38 2024
Total elapsed time: 0.157 seconds.

tnom = 27
temp = 27
method = trap
totiter = 5
traniter = 0
tranpoints = 0
accept = 0
rejected = 0
matrix size = 60
fillins = 87
solver = Normal
Matrix Compiler1:     467 opcodes
Matrix Compiler2: 8.72 KB object code size
